data/input/matpower/sample_143.m
function mpc = powergrid
mpc.version = '2';
mpc.baseMVA = 100;
mpc.bus = [
	1	1	367.738770	149.949741	0	-400	1	1.007039	-7.274217	130	1	1.100000	0.900000;
	2	1	284.934275	131.426140	0	0	1	1.033774	-2.513819	130	1	1.100000	0.900000;
	3	1	698.692895	192.002474	0	0	1	0.972420	-11.654580	130	1	1.100000	0.900000;
	4	1	190.582753	86.531282	0	0	1	1.055318	0.730310	130	1	1.100000	0.900000;
	5	1	4.463094	0.721647	0	0	1	1.088360	-3.382652	130	1	1.100000	0.900000;
	6	1	353.071083	96.962118	0	0	1	0.999264	-10.297157	130	1	1.100000	0.900000;
	7	1	8.421450	1.538745	0	0	1	1.080221	-2.638244	130	1	1.100000	0.900000;
	8	1	264.599901	39.948948	0	0	1	1.112083	-7.214978	130	1	1.100000	0.900000;
	9	1	31.846367	6.181973	0	0	1	1.104404	-4.653424	130	1	1.100000	0.900000;
	10	1	28.236750	20.247610	0	0	1	1.181246	-6.802383	220	1	1.100000	0.900000;
	11	1	87.298066	21.002140	0	0	1	1.169029	-8.385407	220	1	1.100000	0.900000;
	12	1	47.932962	31.245902	0	-400	1	0.951076	-2.764980	400	1	1.100000	0.900000;
	13	1	214.900160	123.772459	0	0	1	0.945028	-6.897924	400	1	1.100000	0.900000;
	14	1	35.944498	15.496558	0	0	1	1.188916	-7.410135	400	1	1.100000	0.900000;
	15	1	2.014984	1.326829	0	0	1	1.143496	-7.697597	400	1	1.100000	0.900000;
	16	1	662.798671	439.309289	0	0	1	1.089219	-8.514394	400	1	1.100000	0.900000;
	17	1	343.802205	-86.316391	0	0	1	1.078441	-8.709776	400	1	1.100000	0.900000;
	18	1	154.644185	82.856386	0	0	1	1.048120	-6.360458	400	1	1.100000	0.900000;
	19	1	331.242871	248.128204	0	0	1	1.027949	1.698698	400	1	1.100000	0.900000;
	20	1	399.994962	187.033823	0	0	1	1.127088	-8.724500	400	1	1.100000	0.900000;
	21	1	26.253995	18.127499	0	0	1	1.120578	-5.817089	400	1	1.100000	0.900000;
	22	1	77.528934	25.018299	0	0	1	1.082885	-3.393544	400	1	1.100000	0.900000;
	23	1	0	0	0	-100	1	0.951499	-2.496703	400	1	1.100000	0.900000;
	24	1	0	0	0	0	1	0.991212	-8.259554	130	1	1.100000	0.900000;
	25	1	0	0	0	0	1	1.011971	13.456614	130	1	1.100000	0.900000;
	26	1	0	0	0	0	1	0.944759	-4.725761	400	1	1.100000	0.900000;
	27	1	0	0	0	0	1	1.125901	-6.854686	400	1	1.100000	0.900000;
	28	1	0	0	0	0	1	1.024951	-2.264809	400	1	1.100000	0.900000;
	29	1	0	0	0	0	1	1.141427	-6.753824	400	1	1.100000	0.900000;
	30	1	0	0	0	0	1	1.052636	-8.473142	400	1	1.100000	0.900000;
	31	1	0	0	0	0	1	1.128890	-6.233324	400	1	1.100000	0.900000;
	32	1	0	0	0	0	1	1.142900	-8.411713	400	1	1.100000	0.900000;
	33	1	0	0	0	0	1	1.142900	-8.411713	400	1	1.100000	0.900000;
	34	1	0	0	0	0	1	1.100125	-8.498855	400	1	1.100000	0.900000;
	35	1	0	0	0	0	1	1.052060	-7.351756	400	1	1.100000	0.900000;
	36	1	0	0	0	0	1	1.122888	-6.997663	400	1	1.100000	0.900000;
	37	1	0	0	0	0	1	1.107485	-4.574839	400	1	1.100000	0.900000;
	38	2	0	0	0	0	1	1	2.898054	15	1	1.100000	0.900000;
	39	2	0	0	0	0	1	1	-8.059378	15	1	1.100000	0.900000;
	40	2	0	0	0	0	1	0	-8.259554	15	1	1.100000	0.900000;
	41	2	0	0	0	0	1	1	16.678461	15	1	1.100000	0.900000;
	42	2	0	0	0	0	1	1	16.398189	15	1	1.100000	0.900000;
	43	2	0	0	0	0	1	1	-4.697796	15	1	1.100000	0.900000;
	44	2	0	0	0	0	1	1	8.563727	15	1	1.100000	0.900000;
	45	2	0	0	0	0	1	0	-8.385407	15	1	1.100000	0.900000;
	46	2	0	0	0	0	1	0	-4.725761	15	1	1.100000	0.900000;
	47	2	0	0	0	0	1	1	2.252644	15	1	1.100000	0.900000;
	48	2	0	0	0	0	1	0	-6.854686	15	1	1.100000	0.900000;
	49	2	0	0	0	0	1	0	-6.233324	15	1	1.100000	0.900000;
	50	2	0	0	0	0	1	0	-7.410135	15	1	1.100000	0.900000;
	51	2	0	0	0	0	1	0	-7.697597	15	1	1.100000	0.900000;
	52	3	0	0	0	0	1	1	0	15	1	1.000000	1.000000;
	53	2	0	0	0	0	1	1	-3.960432	15	1	1.100000	0.900000;
	54	2	0	0	0	0	1	1	7.141440	15	1	1.100000	0.900000;
	55	2	0	0	0	0	1	1	7.141440	15	1	1.100000	0.900000;
	56	2	0	0	0	0	1	0	-5.817089	15	1	1.100000	0.900000;
	57	2	0	0	0	0	1	1	1.772207	15	1	1.100000	0.900000;
	58	2	0	0	0	0	1	0	-3.393544	15	1	1.100000	0.900000;
	59	2	0	0	0	0	1	1	3.119060	15	1	1.100000	0.900000;
	60	2	0	0	0	0	1	0	-6.897924	15	1	1.100000	0.900000;
	61	2	0	0	0	0	1	0	-3.382652	15	1	1.100000	0.900000;
];
mpc.gen = [
	52	0	0	1840.000000	-540.000000	1	1	1	2800.000000	10.000000	0	0	0	0	0	0	0	0	0	0	0;
	38	520.000000	0	720.000000	-720.000000	1	100	1	720.000000	10.000000	0	0	0	0	0	0	0	0	0	0	0;
	39	243.909893	0	540.000000	-540.000000	1	100	1	540.000000	10.000000	0	0	0	0	0	0	0	0	0	0	0;
	40	0	0	630.000000	-630.000000	0	100	0	630.000000	10.000000	0	0	0	0	0	0	0	0	0	0	0;
	41	227.499999	0	540.000000	-540.000000	1	100	1	540.000000	10.000000	0	0	0	0	0	0	0	0	0	0	0;
	42	474.999997	0	325.000000	-225.000000	1	100	1	475.000000	10.000000	0	0	0	0	0	0	0	0	0	0	0;
	43	260.000000	0	560.000000	-360.000000	1	100	1	560.000000	10.000000	0	0	0	0	0	0	0	0	0	0	0;
	44	279.803283	0	360.000000	-280.000000	1	100	1	380.000000	10.000000	0	0	0	0	0	0	0	0	0	0	0;
	45	0	0	965.000000	-765.000000	0	100	0	965.000000	10.000000	0	0	0	0	0	0	0	0	0	0	0;
	46	0	0	900.000000	-900.000000	0	100	0	900.000000	10.000000	0	0	0	0	0	0	0	0	0	0	0;
	47	420.166015	0	720.000000	-720.000000	1	100	1	720.000000	10.000000	0	0	0	0	0	0	0	0	0	0	0;
	48	0	0	570.000000	-370.000000	0	100	0	570.000000	10.000000	0	0	0	0	0	0	0	0	0	0	0;
	49	0	0	515.000000	-415.000000	0	100	0	575.000000	10.000000	0	0	0	0	0	0	0	0	0	0	0;
	50	0	0	570.000000	-570.000000	0	100	0	0.000000	-0.000000	0	0	0	0	0	0	0	0	0	0	0;
	51	0	0	630.000000	-630.000000	0	100	0	630.000000	10.000000	0	0	0	0	0	0	0	0	0	0	0;
	53	175.564644	0	580.000000	-540.000000	1	100	1	540.000000	10.000000	0	0	0	0	0	0	0	0	0	0	0;
	54	455.000000	0	630.000000	-630.000000	1	100	1	630.000000	10.000000	0	0	0	0	0	0	0	0	0	0	0;
	55	455.000000	0	630.000000	-630.000000	1	100	1	630.000000	10.000000	0	0	0	0	0	0	0	0	0	0	0;
	56	0	0	540.000000	-540.000000	0	100	0	540.000000	10.000000	0	0	0	0	0	0	0	0	0	0	0;
	57	389.999999	0	540.000000	-540.000000	1	100	1	540.000000	10.000000	0	0	0	0	0	0	0	0	0	0	0;
	58	0	0	540.000000	-540.000000	0	100	0	540.000000	10.000000	0	0	0	0	0	0	0	0	0	0	0;
	59	325.000000	0	520.000000	-450.000000	1	100	1	560.000000	10.000000	0	0	0	0	0	0	0	0	0	0	0;
	60	0	0	4000.000000	-2050.000000	0	100	0	4500.000000	10.000000	0	0	0	0	0	0	0	0	0	0	0;
	61	0	0	250.000000	-250.000000	0	100	0	0.000000	-0.000000	0	0	0	0	0	0	0	0	0	0	0;
];
mpc.branch = [
	1	3	0.010000	0.070000	0.013804	175.000000	250	250	0	0	1	-360	360;
	1	3	0.010000	0.070000	0.013804	175.000000	250	250	0	0	1	-360	360;
	2	24	0.014024	0.090000	0.018052	175.000000	250	250	0	0	1	-360	360;
	2	24	0.014024	0.090000	0.018052	175.000000	250	250	0	0	1	-360	360;
	3	24	0.006982	0.050000	0.010088	175.000000	250	250	0	0	1	-360	360;
	3	24	0.006982	0.050000	0.010088	175.000000	250	250	0	0	1	-360	360;
	25	4	0.030000	0.200000	0.030263	175.000000	250	250	0	0	1	-360	360;
	25	4	0.030000	0.200000	0.030263	175.000000	250	250	0	0	1	-360	360;
	5	7	0.010000	0.060000	0.012211	175.000000	250	250	0	0	1	-360	360;
	5	7	0.010000	0.060000	0.012211	175.000000	250	250	0	0	1	-360	360;
	5	9	0.014970	0.120000	0.024954	175.000000	250	250	0	0	1	-360	360;
	5	9	0.014970	0.120000	0.024954	175.000000	250	250	0	0	1	-360	360;
	6	8	0.037988	0.280000	0.059995	175.000000	250	250	0	0	1	-360	360;
	6	8	0.037988	0.280000	0.059995	175.000000	250	250	0	0	1	-360	360;
	6	9	0.050000	0.300000	0.059995	175.000000	250	250	0	0	1	-360	360;
	7	8	0.010000	0.080000	0.015928	175.000000	250	250	0	0	1	-360	360;
	7	8	0.010000	0.080000	0.015928	175.000000	250	250	0	0	1	-360	360;
	10	11	0.012004	0.090000	0.015205	250.000000	250	250	0	0	1	-360	360;
	10	11	0.012004	0.090000	0.015205	250.000000	250	250	0	0	1	-360	360;
	26	23	0.001000	0.008000	0.201062	700.000000	250	250	0	0	1	-360	360;
	26	27	0.006000	0.060000	1.799488	700.000000	250	250	0	0	1	-360	360;
	26	28	0.004000	0.040000	1.201344	700.000000	250	250	0	0	1	-360	360;
	26	12	0.005000	0.045000	1.402400	700.000000	250	250	0	0	1	-360	360;
	23	28	0.004000	0.035000	1.050560	700.000000	250	250	0	0	1	-360	360;
	23	12	0.005000	0.050000	1.497920	700.000000	250	250	0	0	1	-360	360;
	27	29	0.004000	0.040000	1.201344	700.000000	250	250	0	0	1	-360	360;
	27	30	0.010000	0.100000	3.000864	700.000000	250	250	0	0	1	-360	360;
	30	15	0	-0.040000	0	700.000000	250	250	0	0	1	-360	360;
	28	31	0.004000	0.040000	1.201344	700.000000	250	250	0	0	1	-360	360;
	28	31	0.004000	0.040000	1.201344	700.000000	250	250	0	0	1	-360	360;
	31	29	0.001000	0.010000	0.301594	700.000000	250	250	0	0	1	-360	360;
	31	32	0.006000	0.080000	2.397664	700.000000	250	250	0	0	1	-360	360;
	32	14	0	-0.040000	0	700.000000	250	250	0	0	1	-360	360;
	31	33	0.006000	0.080000	2.397664	700.000000	250	250	0	0	1	-360	360;
	33	14	0	-0.040000	0	700.000000	250	250	0	0	1	-360	360;
	29	34	0.010000	0.066669	2.000576	700.000000	250	250	0	0	1	-360	360;
	34	15	0	-0.026669	0	700.000000	250	250	0	0	1	-360	360;
	29	35	0.006000	0.080000	2.397664	700.000000	250	250	0	0	1	-360	360;
	35	36	0	-0.030000	0	700.000000	250	250	0	0	1	-360	360;
	14	36	0.003000	0.030000	0.899744	700.000000	250	250	0	0	1	-360	360;
	14	20	0.006000	0.045000	1.301888	700.000000	250	250	0	0	1	-360	360;
	15	16	0.002000	0.015000	0.497632	700.000000	250	250	0	0	1	-360	360;
	15	36	0.002000	0.020000	0.598176	700.000000	250	250	0	0	1	-360	360;
	16	36	0.001000	0.010000	0.301594	700.000000	250	250	0	0	1	-360	360;
	16	17	0.001000	0.010000	0.301594	700.000000	250	250	0	0	1	-360	360;
	16	18	0.002000	0.020000	0.598176	700.000000	250	250	0	0	1	-360	360;
	36	37	0.002000	0.020000	0.598176	700.000000	250	250	0	0	1	-360	360;
	36	37	0.002000	0.020000	0.598176	700.000000	250	250	0	0	1	-360	360;
	37	19	0.004000	0.040000	1.201344	700.000000	250	250	0	0	1	-360	360;
	37	19	0.004000	0.040000	1.201344	700.000000	250	250	0	0	1	-360	360;
	37	21	0.011000	0.080000	2.397664	700.000000	250	250	0	0	1	-360	360;
	17	18	0.001000	0.015000	0.497632	700.000000	250	250	0	0	1	-360	360;
	20	21	0.002000	0.020000	0.598176	700.000000	250	250	0	0	1	-360	360;
	21	22	0.003000	0.030000	0.899744	700.000000	250	250	0	0	1	-360	360;
	21	22	0.003000	0.030000	0.899744	700.000000	250	250	0	0	1	-360	360;
	12	13	0.003000	0.030000	3.000864	700.000000	250	250	0	0	0	-360	360;
	12	13	0.003000	0.030000	3.000864	700.000000	250	250	0	0	1	-360	360;
	2	38	0	0.018750	0	800	250	250	0	0	1	-360	360;
	3	39	0	0.025000	0	600	250	250	0	0	1	-360	360;
	24	40	0	0.021429	0	700	250	250	0	0	1	-360	360;
	25	41	0	0.025000	0	600	250	250	0	0	1	-360	360;
	4	42	0	0.060000	0	1250	250	250	0	0	1	-360	360;
	6	43	0	0.037500	0	400	250	250	0	0	1	-360	360;
	7	44	0	0.075000	0	1200	250	250	0	0	1	-360	360;
	11	45	0	0.017647	0	850	250	250	0	0	1	-360	360;
	26	46	0	0.015000	0	1000	250	250	0	0	1	-360	360;
	23	47	0	0.018750	0	800	250	250	0	0	1	-360	360;
	27	48	0	0.050000	0	300	250	250	0	0	1	-360	360;
	31	49	0	0.042857	0	1350	250	250	0	0	1	-360	360;
	14	50	0	0.017391	0	575	250	250	0	0	1	-360	360;
	15	51	0	0.021429	0	700	250	250	0	0	1	-360	360;
	18	52	0	0.025000	0	600	250	250	0	0	1	-360	360;
	18	53	0	0.025000	0	600	250	250	0	0	1	-360	360;
	19	54	0	0.021429	0	700	250	250	0	0	1	-360	360;
	19	55	0	0.021429	0	700	250	250	0	0	1	-360	360;
	21	56	0	0.025000	0	600	250	250	0	0	1	-360	360;
	22	57	0	0.025000	0	600	250	250	0	0	1	-360	360;
	22	58	0	0.025000	0	600	250	250	0	0	1	-360	360;
	12	59	0	0.030000	0	500	250	250	0	0	1	-360	360;
	13	60	0	0.003333	0	4500	250	250	0	0	1	-360	360;
	26	1	0	0.008000	0	1250	250	250	0.892860	0	1	-360	360;
	23	2	0	0.008000	0	1250	250	250	0.892860	0	1	-360	360;
	28	4	0	0.012000	0	833.300000	250	250	0.934580	0	1	-360	360;
	31	10	0	0.012000	0	833.300000	250	250	0.952380	0	1	-360	360;
	36	8	0	0.010000	0	1000	250	250	0	0	1	-360	360;
	36	8	0	0.010000	0	1000	250	250	0	0	1	-360	360;
	37	9	0	0.010000	0	1000	250	250	0	0	1	-360	360;
	37	9	0	0.010000	0	1000	250	250	0	0	1	-360	360;
	5	61	0	0.025000	0	1200	250	250	0	0	1	-360	360;
];
